4
Acetylene_2 74-86-2 CC3(Full)/aug-cc-pVTZ Trans excited state (singlet Au state in the C2h point group)
C    1.29567779            0.00000000           -0.01846047
C   -1.29567779            0.00000000            0.01846047
H    2.41938674            0.00000000            1.70881682 
H   -2.41938674            0.00000000           -1.70881682
