15
Adenine 73-24-5 CCSD(T)(FC)/cc-pVTZ (Cs point group)
C  2.29868893 -0.70872970 0.00000000
C  0.19316764 -0.51843613 0.00000000
C  -1.20078575 -0.65781798 0.00000000
C  -1.34345780 1.63473813 0.00000000
C  0.67889779 0.78000731 0.00000000
N  2.04206640 0.64144223 0.00000000
N  1.21795361 -1.44673009 0.00000000
N  -1.79474113 -1.86564791 0.00000000
N  -1.96079662 0.44150832 0.00000000
N  -0.04007257 1.90660143 0.00000000
H  3.30382542 -1.08682921 0.00000000
H  -2.79428693 -1.91604296 0.00000000
H  -1.23727876 -2.69662968 0.00000000
H  -2.00240439 2.48925823 0.00000000
H  2.71206705 1.38792024 0.00000000
