14
Aniline 62-53-3 CC3(FC)/cc-pVTZ -- C2v enforced
C  0.00000000 0.00000000 -0.94534068
C  1.20290461 0.00000000 -0.22996569
C  -1.20290461 0.00000000 -0.22996569
C  0.00000000 0.00000000 1.86803595
C  1.19767387 0.00000000 1.15843685
C  -1.19767387 0.00000000 1.15843685
N  0.00000000 0.00000000 -2.31901656
H  2.13778261 0.00000000 1.68705597
H  -2.13778261 0.00000000 1.68705597
H  0.00000000 0.00000000 2.94483398
H  2.13893655 0.00000000 -0.76739642
H  -2.13893655 0.00000000 -0.76739642
H  -0.85799486 0.00000000 -2.82979668
H  0.85799486 0.00000000 -2.82979668
