24
Anthracene 120-12-7 CCSD(T)(FC)/cc-pVTZ
C    0.00000000            2.63580732            0.00000000
C    0.00000000           -2.63580732            0.00000000
C   -2.29791519            1.34956852            0.00000000
C    2.29791519            1.34956852            0.00000000
C   -2.29791519           -1.34956852            0.00000000
C    2.29791519           -1.34956852            0.00000000
C   -4.65745777            2.64726588            0.00000000
C    4.65745777            2.64726588            0.00000000
C   -4.65745777           -2.64726588            0.00000000
C    4.65745777           -2.64726588            0.00000000
C   -6.88218555            1.34593157            0.00000000
C    6.88218555            1.34593157            0.00000000
C   -6.88218555           -1.34593157            0.00000000
C    6.88218555           -1.34593157            0.00000000
H    0.00000000            4.67946059            0.00000000
H    0.00000000           -4.67946059            0.00000000
H   -4.64776022            4.68790486            0.00000000
H    4.64776022            4.68790486            0.00000000
H   -4.64776022           -4.68790486            0.00000000
H    4.64776022           -4.68790486            0.00000000
H   -8.65488616            2.34873329            0.00000000
H    8.65488616            2.34873329            0.00000000
H   -8.65488616           -2.34873329            0.00000000
H    8.65488616           -2.34873329            0.00000000
