24
Anthracene 120-12-7 CCSD(T)(FC)/cc-pVTZ
C  0.00000000 1.39480861 0.00000000
C  0.00000000 -1.39480861 0.00000000
C  -1.21600387 0.71416062 0.00000000
C  1.21600387 0.71416062 0.00000000
C  -1.21600387 -0.71416062 0.00000000
C  1.21600387 -0.71416062 0.00000000
C  -2.46461953 1.40087222 0.00000000
C  2.46461953 1.40087222 0.00000000
C  -2.46461953 -1.40087222 0.00000000
C  2.46461953 -1.40087222 0.00000000
C  -3.64189430 0.71223603 0.00000000
C  3.64189430 0.71223603 0.00000000
C  -3.64189430 -0.71223603 0.00000000
C  3.64189430 -0.71223603 0.00000000
H  0.00000000 2.47626292 0.00000000
H  0.00000000 -2.47626292 0.00000000
H  -2.45948781 2.48073143 0.00000000
H  2.45948781 2.48073143 0.00000000
H  -2.45948781 -2.48073143 0.00000000
H  2.45948781 -2.48073143 0.00000000
H  -4.57996669 1.24289564 0.00000000
H  4.57996669 1.24289564 0.00000000
H  -4.57996669 -1.24289564 0.00000000
H  4.57996669 -1.24289564 0.00000000
