24
Azobenzene 103-33-3 CCSD(T)(FC)/cc-pVTZ
N  0.37562973 0.50116413 0.00000000
N  -0.37562973 -0.50116413 0.00000000
C  1.76161518 0.18693397 0.00000000
C  -1.76161518 -0.18693397 0.00000000
C  2.62117882 1.28026317 0.00000000
C  -2.62117882 -1.28026317 0.00000000
C  2.27426971 -1.11188602 0.00000000
C  -2.27426971 1.11188602 0.00000000
C  3.99797307 1.08518443 0.00000000
C  -3.99797307 -1.08518443 0.00000000
C  3.64712003 -1.30146643 0.00000000
C  -3.64712003 1.30146643 0.00000000
C  4.51235687 -0.20624086 0.00000000
C  -4.51235687 0.20624086 0.00000000
H  2.19417894 2.26971134 0.00000000
H  -2.19417894 -2.26971134 0.00000000
H  1.59264333 -1.94375923 0.00000000
H  -1.59264333 1.94375923 0.00000000
H  4.66209801 1.93374262 0.00000000
H  -4.66209801 -1.93374262 0.00000000
H  4.04823753 -2.30207664 0.00000000
H  -4.04823753 2.30207664 0.00000000
H  5.57858225 -0.36302010 0.00000000
H  -5.57858225 0.36302010 0.00000000
