13
Benzothiadiazole 273-13-2 (2,1,3-Benzothiadiazole) CC3(FC)/cc-pVTZ
S  0.00000000 0.00000000 2.18434933
N  0.00000000 1.25941463 1.14722879
N  0.00000000 -1.25941463 1.14722879
C  0.00000000 0.71684741 -0.07985740
C  0.00000000 -0.71684741 -0.07985740
C  0.00000000 1.43199964 -1.30494974
C  0.00000000 -1.43199964 -1.30494974
C  0.00000000 0.71420137 -2.46823898
C  0.00000000 -0.71420137 -2.46823898
H  0.00000000 2.50857026 -1.29635872
H  0.00000000 -2.50857026 -1.29635872
H  0.00000000 1.23108207 -3.41404384
H  0.00000000 -1.23108207 -3.41404384
