13
Benzonitrile 100-47-0 CC3(FC)/cc-pVTZ
C  0.00000000 0.00000000 -1.97392660
C  0.00000000 0.00000000 -0.54357319
C  1.21054753 0.00000000 0.15130418
C  -1.21054753 0.00000000 0.15130418
C  0.00000000 0.00000000 2.23456060
C  1.20683871 0.00000000 1.53983343
C  -1.20683871 0.00000000 1.53983343
N  0.00000000 0.00000000 -3.13611477
H  2.13750712 0.00000000 -0.39729862
H  -2.13750712 0.00000000 -0.39729862
H  2.14082035 0.00000000 2.07676590
H  -2.14082035 0.00000000 2.07676590
H  0.00000000 0.00000000 3.31207945
