12
Benzoquinone 106-51-4 (1,4-Benzoquinone) CC3(Full)/aug-cc-pVTZ
C  1.43654319 0.00000000 0.00000000
C  -1.43654319 0.00000000 0.00000000
C  0.67017986 1.26325114 0.00000000
C  0.67017986 -1.26325114 0.00000000
C  -0.67017986 1.26325114 0.00000000
C  -0.67017986 -1.26325114 0.00000000
O  2.65968407 0.00000000 0.00000000
O  -2.65968407 0.00000000 0.00000000
H  1.25530666 2.17131300 0.00000000
H  1.25530666 -2.17131300 0.00000000
H  -1.25530666 2.17131300 0.00000000
H  -1.25530666 -2.17131300 0.00000000
