13
Benzoxadiazole 273-09-6 (2,1,3-Benzoxadiazole) CC3(FC)/cc-pVTZ
O  0.00000000 0.00000000 2.23897620
N  0.00000000 1.14155005 1.48192013
N  0.00000000 -1.14155005 1.48192013
C  0.00000000 0.71160611 0.23551091
C  0.00000000 -0.71160611 0.23551091
C  0.00000000 1.44639963 -0.98145962
C  0.00000000 -1.44639963 -0.98145962
C  0.00000000 0.71950057 -2.13445853
C  0.00000000 -0.71950057 -2.13445853
H  0.00000000 2.52223294 -0.97656474
H  0.00000000 -2.52223294 -0.97656474
H  0.00000000 1.22835147 -3.08432568
H  0.00000000 -1.22835147 -3.08432568
