14
Bimane_syn 79769-56-5 (1H,7H-Pyrazolo[1,2-a]pyrazole-1,7-dione) CCSD(T)(FC)/cc-pVTZ
N  -1.20666095 -0.26649391 0.00000000
N  0.17368796 -0.30698631 0.00000000
C  0.65755848 -0.01223899 1.31104119
C  0.65755848 -0.01223899 -1.31104119
C  -0.57129637 0.17702486 2.09583825
C  -0.57129637 0.17702486 -2.09583825
C  -1.63169511 0.06500937 1.27001399
C  -1.63169511 0.06500937 -1.27001399
O  1.81750130 0.04586377 1.62428856
O  1.81750130 0.04586377 -1.62428856
H  -0.58397504 0.36773933 3.14922719
H  -0.58397504 0.36773933 -3.14922719
H  -2.68363930 0.15230451 1.46717149
H  -2.68363930 0.15230451 -1.46717149
