14
Bimane_anti 77483-78-4 (1H,5H-Pyrazolo[1,2-a]pyrazole-1,5-dione) CCSD(T)(FC)/cc-pVTZ
N  0.45266460 -0.51466707 -0.24000886
N  -0.45266460 0.51466707 -0.24000886
C  1.75894749 -0.02783159 0.01486133
C  -1.75894749 0.02783159 0.01486133
C  1.55729892 1.42485981 0.10043967
C  -1.55729892 -1.42485981 0.10043967
C  0.23584731 1.68621075 -0.01445485
C  -0.23584731 -1.68621075 -0.01445485
O  2.73948311 -0.72538151 0.11714548
O  -2.73948311 0.72538151 0.11714548
H  2.34859934 2.13071360 0.24716081
H  -2.34859934 -2.13071360 0.24716081
H  -0.30722625 2.61089041 0.02766466
H  0.30722625 -2.61089041 0.02766466
