21
BODIPY 138026-71-8 (Boron, difluoro[2-[(2H-pyrrol-2-ylidene-kappaN)methyl]-1H-pyrrolato-kappaN]-, (T-4)-) CCSD(T)(FC)/cc-pVTZ
C  0.00000000 0.00000000 -1.82966247
C  0.00000000 1.20893544 -1.15752396
C  0.00000000 -1.20893544 -1.15752396
C  0.00000000 2.53893088 -1.63673631
C  0.00000000 -2.53893088 -1.63673631
C  0.00000000 3.36651974 -0.52752384
C  0.00000000 -3.36651974 -0.52752384
C  0.00000000 2.52348444 0.60282946
C  0.00000000 -2.52348444 0.60282946
B  0.00000000 0.00000000 1.17551184
F  1.13585703 0.00000000 1.94752025
F  -1.13585703 0.00000000 1.94752025
N  0.00000000 1.24261993 0.22488920
N  0.00000000 -1.24261993 0.22488920
H  0.00000000 2.82557733 -2.67234071
H  0.00000000 -2.82557733 -2.67234071
H  0.00000000 4.43900064 -0.50948395
H  0.00000000 -4.43900064 -0.50948395
H  0.00000000 2.78535317 1.64516651
H  0.00000000 -2.78535317 1.64516651
H  0.00000000 0.00000000 -2.90841428
