10
Borole 287-87-6 CC3(Full)/aug-cc-pVTZ
B    0.00000000            0.00000000            2.44991435
C    0.00000000            2.35991046            0.62561328
C    0.00000000           -2.35991046            0.62561328
C    0.00000000            1.42526648           -1.74135978
C    0.00000000           -1.42526648           -1.74135978
H    0.00000000            0.00000000            4.69246473
H    0.00000000            4.35732912            1.03002724
H    0.00000000           -4.35732912            1.03002724
H    0.00000000            2.51021632           -3.47247633
H    0.00000000           -2.51021632           -3.47247633
