10
Butadiene 106-99-0 CC3(Full)/aug-cc-pVTZ
C  0.60673447 0.00000000 0.39936364
C  -0.60673447 0.00000000 -0.39936364
C  1.84223790 0.00000000 -0.11897383
C  -1.84223790 0.00000000 0.11897383
H  0.48033914 0.00000000 1.47578959
H  -0.48033914 0.00000000 -1.47578959
H  1.99777978 0.00000000 -1.19009510
H  -1.99777978 0.00000000 1.19009510
H  2.71819686 0.00000000 0.51257084
H  -2.71819686 0.00000000 -0.51257084
