7
ClO2 10049-04-4 U-CCSD(T)(Full)/aug-cc-pVTZ
Cl   0.00000000            0.00000000            0.70662178
O    0.00000000            2.40622607           -0.77242528
O    0.00000000           -2.40622607           -0.77242528
 
CN 2074-87-5 U-CCSD(T)(Full)/aug-cc-pVTZ
C    0.00000000            0.00000000           -1.18953886
N    0.00000000            0.00000000            1.01938091
