4
Cyanogen_1 460-19-5 (Ethanedinitrile) CC3(Full)/aug-cc-pVTZ Ground state
C    0.00000000            0.00000000            1.30401924
C    0.00000000            0.00000000           -1.30401924
N    0.00000000            0.00000000            3.49784121
N    0.00000000            0.00000000           -3.49784121
