5
Cyanoacetylene_2 1070-71-9 CC3(Full)/aug-cc-pVTZ Lowest excited state
C    1.99411175            0.00000000            2.81781077
C   -0.07304269            0.00000000            1.33125774
C   -0.63630126            0.00000000           -1.14556678
N   -1.39755756            0.00000000           -3.26154643
H    1.90749857            0.00000000            4.87279180
