5
Cyanoacetylene_1 1070-71-9 CC3(Full)/aug-cc-pVTZ Ground state
C    0.00000000            0.00000000           -3.59120182
C    0.00000000            0.00000000           -1.30693904
C    0.00000000            0.00000000            1.28880240
N    0.00000000            0.00000000            3.48692211
H    0.00000000            0.00000000           -5.59619886
