11
Cyclopentadiene 542-92-7 CC3(Full)/aug-cc-pVTZ
C  0.00000000 0.00000000 -1.23358065
C  0.00000000 1.17587941 -0.30094925
C  0.00000000 -1.17587941 -0.30094925
C  0.00000000 0.73298662 0.97248404
C  0.00000000 -0.73298662 0.97248404
H  0.87912442 0.00000000 -1.88606250
H  -0.87912442 0.00000000 -1.88606250
H  0.00000000 2.20428894 -0.62504601
H  0.00000000 -2.20428894 -0.62504601
H  0.00000000 1.34683264 1.85927558
H  0.00000000 -1.34683264 1.85927558
