7
Cyclopropene 2781-85-3 CC3(Full)/aug-cc-pVTZ
C    0.00000000            0.00000000           -1.66820880
C    0.00000000            1.22523906            0.90681419
C    0.00000000           -1.22523906            0.90681419
H    1.72255446            0.00000000           -2.77881149
H   -1.72255446            0.00000000           -2.77881149
H    0.00000000            2.97844519            1.92076771
H    0.00000000           -2.97844519            1.92076771
