10
Cyclopentadienethione 77825-99-1 (2,4-Cyclopentadiene-1-thione) CC3(Full)/aug-cc-pVTZ
C    0.00000000            0.00000000            0.54718884
C    0.00000000            2.23394142           -1.11648863
C    0.00000000           -2.23394142           -1.11648863
C    0.00000000            1.40618242           -3.52381930
C    0.00000000           -1.40618242           -3.52381930
S    0.00000000            0.00000000            3.63323789
H    0.00000000            4.14572930           -0.42732005 
H    0.00000000           -4.14572930           -0.42732005 
H    0.00000000            2.55090221           -5.20908210
H    0.00000000           -2.55090221           -5.20908210
