6
Cyclopropenethione 69903-36-2 CC3(Full)/aug-cc-pVTZ
C    0.00000000            1.26230744           -2.86571925
C    0.00000000           -1.26230744           -2.86571925
C    0.00000000            0.00000000           -0.49233236
S    0.00000000            0.00000000            2.57821680
H    0.00000000            2.97773331           -3.95114059
H    0.00000000           -2.97773331           -3.95114059
