7
Cyclopropene 2781-85-3 CC3(Full)/aug-cc-pVTZ
C  0.00000000 0.00000000 -0.88277773
C  0.00000000 0.64836833 0.47986521
C  0.00000000 -0.64836833 0.47986521
H  0.91153620 0.00000000 -1.47048313
H  -0.91153620 0.00000000 -1.47048313
H  0.00000000 1.57612469 1.01642609
H  0.00000000 -1.57612469 1.01642609
