8
Cyclobutadiene 1120-53-2 CC3(Full)/aug-cc-pVTZ
C   -1.47868321           -1.27004715            0.00000000
C    1.47868321           -1.27004715            0.00000000
C   -1.47868321            1.27004715            0.00000000
C    1.47868321            1.27004715            0.00000000
H   -2.91448237           -2.70994518            0.00000000
H    2.91448237           -2.70994518            0.00000000
H   -2.91448237            2.70994518            0.00000000
H    2.91448237            2.70994518            0.00000000
