13
Cytosine 71-30-7 CCSD(T)(FC)/cc-pVTZ (Cs point group)
C    0.13153616           -3.29434651            0.00000000                          
C   -2.16958868           -2.18889562            0.00000000                          
C   -2.18164163            0.52447245            0.00000000                          
C    2.19656249            0.81672316            0.00000000                          
N    2.23905741           -1.84899578            0.00000000                          
N   -0.14418728            1.93350477            0.00000000                          
N   -4.43045933            1.73167720            0.00000000                          
O    4.19248155            1.94651979            0.00000000                          
H    0.39918927           -5.31187887            0.00000000                          
H   -3.87818863           -3.28205605            0.00000000                          
H    3.97074213           -2.62813711            0.00000000                          
H   -6.06514617            0.78792181            0.00000000                          
H   -4.42374473            3.62537996            0.00000000
