6
Diacetylene 460-12-8 CC3(Full)/aug-cc-pVTZ
C    0.00000000            0.00000000            1.29447700
C    0.00000000            0.00000000           -1.29447700
C    0.00000000            0.00000000            3.58448429
C    0.00000000            0.00000000           -3.58448429
H    0.00000000            0.00000000            5.58943003
H    0.00000000            0.00000000           -5.58943003
