5
Diazirine 157-22-2 (3H-Diazirine) CC3(Full)/aug-cc-pVTZ
C    0.00000000            0.00000000           -0.26696099
H    0.00000000            1.75890895           -1.28616478
H    0.00000000           -1.75890895           -1.28616479
N    1.16058100            0.00000000            2.27183007
N   -1.16058100            0.00000000            2.27183007
