14
Diketopyrrolopyrrole 114482-12-1 CC3(FC)/cc-pVTZ
C  -0.41326451 0.58555855 0.00000000
C  0.41326451 -0.58555855 0.00000000
C  0.40096103 1.67337396 0.00000000
C  -0.40096103 -1.67337396 0.00000000
C  -1.81404541 0.17722271 0.00000000
C  1.81404541 -0.17722271 0.00000000
N  -1.71111976 -1.24062634 0.00000000
N  1.71111976 1.24062634 0.00000000
O  -2.86099318 0.78929208 0.00000000
O  2.86099318 -0.78929208 0.00000000
H  -2.52190621 -1.83154530 0.00000000
H  2.52190621 1.83154530 0.00000000
H  0.16320201 2.72156377 0.00000000
H  -0.16320201 -2.72156377 0.00000000
