21
Dimethylaminobenzonitrile_1 1197-19-9 (4-(Dimethylamino)benzonitrile) CCSD(T)(FC)/cc-pVTZ Planar
C  0.00000000 0.00000000 -1.03762718
C  1.20594842 0.00000000 -0.30848236
C  -1.20594842 0.00000000 -0.30848236
C  0.00000000 0.00000000 1.78562838
C  1.19970271 0.00000000 1.07319086
C  -1.19970271 0.00000000 1.07319086
C  0.00000000 0.00000000 3.21103962
C  1.25142517 0.00000000 -3.12313333
C  -1.25142517 0.00000000 -3.12313333
N  0.00000000 0.00000000 -2.40105200
N  0.00000000 0.00000000 4.37302876
H  2.15094264 0.00000000 -0.82077247
H  -2.15094264 0.00000000 -0.82077247
H  2.13453701 0.00000000 1.60922714
H  -2.13453701 0.00000000 1.60922714
H  1.04161407 0.00000000 -4.18733973
H  -1.04161407 0.00000000 -4.18733973
H  1.84974442 -0.88431673 -2.89461646
H  1.84974442 0.88431673 -2.89461646
H  -1.84974442 0.88431673 -2.89461646
H  -1.84974442 -0.88431673 -2.89461646
