21
Dimethylaminobenzonitrile_2 1197-19-9 (4-(Dimethylamino)benzonitrile) CCSD(T)(FC)/cc-pVT Twisted
C  0.00000000 0.00000000 -1.01934847
C  1.20242338 0.00000000 -0.30860524
C  -1.20242338 0.00000000 -0.30860524
C  0.00000000 0.00000000 1.77570980
C  1.20827119 0.00000000 1.07821381
C  -1.20827119 0.00000000 1.07821381
C  0.00000000 0.00000000 3.20574960
C  0.00000000 1.26574759 -3.11297564
C  0.00000000 -1.26574759 -3.11297564
N  0.00000000 0.00000000 -2.42593064
N  0.00000000 0.00000000 4.36683601
H  2.13140780 0.00000000 -0.85554438
H  -2.13140780 0.00000000 -0.85554438
H  2.13683921 0.00000000 1.62436814
H  -2.13683921 0.00000000 1.62436814
H  0.00000000 1.08617863 -4.18527812
H  0.00000000 -1.08617863 -4.18527812
H  0.88297374 1.86756765 -2.87668645
H  -0.88297374 1.86756765 -2.87668645
H  -0.88297374 -1.86756765 -2.87668645
H  0.88297374 -1.86756765 -2.87668645
