4
Formaldehyde_2 50-00-0 CC3(Full)/aug-cc-pVTZ Excited state
C   -0.09942705            0.00000000            1.27071070
O    0.01987299            0.00000000           -1.23280536
H    0.42778855            1.76729629            2.18470884
H    0.42778855           -1.76729629            2.18470884
