4
Formaldehyde_1 50-00-0 CC3(Full)/aug-cc-pVTZ Ground state
C    0.00000000            0.00000000           -1.13947666
O    0.00000000            0.00000000            1.14402883
H    0.00000000            1.76627623           -2.23398653
H    0.00000000           -1.76627623           -2.23398653
