16
Guanine 73-40-5 CCSD(T)(FC)/cc-pVTZ (Cs point group)
C  2.66864356 0.59704192 0.00000000
C  0.83241004 -0.45951492 0.00000000
C  -0.21308796 -1.43781858 0.00000000
C  -1.69244551 0.56866207 0.00000000
C  0.48913246 0.87981849 0.00000000
N  1.67437905 1.55154460 0.00000000
N  2.20284504 -0.62245237 0.00000000
N  -1.47569202 -0.77883059 0.00000000
N  -0.73836393 1.45969006 0.00000000
N  -2.98481871 0.97900999 0.00000000
O  -0.17509090 -2.64907031 0.00000000
H  3.70735375 0.86746331 0.00000000
H  1.78119517 2.54888549 0.00000000
H  -2.25834327 -1.41287514 0.00000000
H  -3.15836818 1.96392302 0.00000000
H  -3.75114330 0.33886992 0.00000000
