20
Indacene_2 267-21-0 (s-Indacene) CCSD(T)(FC)/cc-pVTZ [D2h constrained]
C  0.00000000 1.43213316 0.00000000
C  0.00000000 -1.43213316 0.00000000
C  -1.19254473 0.71621901 0.00000000
C  1.19254473 0.71621901 0.00000000
C  -1.19254473 -0.71621901 0.00000000
C  1.19254473 -0.71621901 0.00000000
C  -2.54966413 1.13784103 0.00000000
C  2.54966413 1.13784103 0.00000000
C  -2.54966413 -1.13784103 0.00000000
C  2.54966413 -1.13784103 0.00000000
C  -3.37040139 0.00000000 0.00000000
C  3.37040139 0.00000000 0.00000000
H  0.00000000 2.51345404 0.00000000
H  0.00000000 -2.51345404 0.00000000
H  -2.88707628 2.16060187 0.00000000
H  2.88707628 2.16060187 0.00000000
H  -2.88707628 -2.16060187 0.00000000
H  2.88707628 -2.16060187 0.00000000
H  -4.44462555 0.00000000 0.00000000
H  4.44462555 0.00000000 0.00000000
