12
Isobutene 115-11-7 CC3(Full)/aug-cc-pVTZ
C  0.00000000 0.00000000 1.43296241
C  0.00000000 0.00000000 0.09753411
C  0.00000000 1.26946690 -0.70106816
C  0.00000000 -1.26946690 -0.70106816
H  0.00000000 0.92525754 1.99336377
H  0.00000000 -0.92525754 1.99336377
H  0.00000000 2.14791441 -0.05599755
H  0.00000000 -2.14791441 -0.05599755
H  0.87857666 1.31414709 -1.34985738
H  -0.87857666 1.31414709 -1.34985738
H  0.87857666 -1.31414709 -1.34985738
H  -0.87857666 -1.31414709 -1.34985738
