5
Ketene_1 463-51-4 (Ethenone) CC3(Full)/aug-cc-pVTZ Ground state
C    0.00000000            0.00000000           -2.44810151
C    0.00000000            0.00000000            0.03498545
O    0.00000000            0.00000000            2.23663914
H    0.00000000            1.77432079           -3.43705988
H    0.00000000           -1.77432079           -3.43705988
