10
Maleimide 541-59-3 (1H-Pyrrole-2,5-dione) CC3(Full)/aug-cc-pVTZ
C  0.00000000 1.15016833 0.13317032
C  0.00000000 -1.15016833 0.13317032
C  0.00000000 0.66791829 -1.28160823
C  0.00000000 -0.66791829 -1.28160823
N  0.00000000 0.00000000 0.91200874
O  0.00000000 2.28979766 0.53524876
O  0.00000000 -2.28979766 0.53524876
H  0.00000000 0.00000000 1.91671137
H  0.00000000 1.34909162 -2.11477305
H  0.00000000 -1.34909162 -2.11477305
