8
Methylenecyclopropene 4095-06-1 CC3(Full)/aug-cc-pVTZ
C    0.00000000            0.00000000            0.53512883
C    0.00000000            0.00000000            3.04739824
C    0.00000000            1.25042956           -1.88571561
C    0.00000000           -1.25042956           -1.88571561
H    0.00000000            2.96887531           -2.96270271
H    0.00000000           -2.96887531           -2.96270271
H    0.00000000            1.75335023            4.08608382
H    0.00000000           -1.75335023            4.08608382
