22
Naphthalimide 81-83-4 (1,8-Naphthalimide) CCSD(T)(FC)/cc-pVTZ
C  0.00000000 0.00000000 0.46786790
C  0.00000000 0.00000000 1.88127733
C  1.24691353 0.00000000 -1.70091753
C  -1.24691353 0.00000000 -1.70091753
C  1.22914701 0.00000000 -0.22580771
C  -1.22914701 0.00000000 -0.22580771
C  2.41838026 0.00000000 0.46234158
C  -2.41838026 0.00000000 0.46234158
C  2.42407081 0.00000000 1.87002800
C  -2.42407081 0.00000000 1.87002800
C  1.23819063 0.00000000 2.56403408
C  -1.23819063 0.00000000 2.56403408
N  0.00000000 0.00000000 -2.30611988
O  2.26006467 0.00000000 -2.36977725
O  -2.26006467 0.00000000 -2.36977725
H  0.00000000 0.00000000 -3.31530481
H  3.33812775 0.00000000 -0.09919157
H  -3.33812775 0.00000000 -0.09919157
H  3.36206262 0.00000000 2.39950100
H  -3.36206262 0.00000000 2.39950100
H  1.23676728 0.00000000 3.64355910
H  -1.23676728 0.00000000 3.64355910
