18
Naphthalene 91-20-3 CC3(Full)/cc-pVTZ
C    0.00000000            1.33999524            0.00000000
C    0.00000000           -1.33999524            0.00000000
C    2.33779858            2.63841577            0.00000000
C   -2.33779858            2.63841577            0.00000000
C    2.33779858           -2.63841577            0.00000000
C   -2.33779858           -2.63841577            0.00000000
C    4.57964958            1.33587048            0.00000000
C   -4.57964958            1.33587048            0.00000000
C    4.57964958           -1.33587048            0.00000000
C   -4.57964958           -1.33587048            0.00000000
H    2.32888235            4.67949410            0.00000000
H   -2.32888235            4.67949410            0.00000000
H    2.32888235           -4.67949410            0.00000000
H   -2.32888235           -4.67949410            0.00000000
H    6.34884007            2.34551705            0.00000000
H   -6.34884007            2.34551705            0.00000000
H    6.34884007           -2.34551705            0.00000000
H   -6.34884007           -2.34551705            0.00000000
