14
Nitropyridine_N-oxide 1124-33-0 (4-Nitropyridine N-oxide) CCSD(T)(FC)/cc-pVTZ
C  0.00000000 0.00000000 -0.64421058
C  1.20030708 0.00000000 0.04782706
C  -1.20030708 0.00000000 0.04782706
C  1.18000267 0.00000000 1.42139634
C  -1.18000267 0.00000000 1.42139634
N  0.00000000 0.00000000 -2.09926959
N  0.00000000 0.00000000 2.11988964
O  0.00000000 0.00000000 3.38123958
O  -1.08691979 0.00000000 -2.65878893
O  1.08691979 0.00000000 -2.65878893
H  2.13518640 0.00000000 -0.48122968
H  -2.13518640 0.00000000 -0.48122968
H  2.05465938 0.00000000 2.04498661
H  -2.05465938 0.00000000 2.04498661
