16
Nitroaniline 100-01-6 (4-Nitroaniline) CC3(FC)/cc-pVTZ
C  0.00000000 0.00000000 -2.14801272
C  1.20688526 0.00000000 -1.43306987
C  -1.20688526 0.00000000 -1.43306987
C  0.00000000 0.00000000 0.63048306
C  1.20815517 0.00000000 -0.05123409
C  -1.20815517 0.00000000 -0.05123409
N  0.00000000 0.00000000 2.08523656
N  0.00000000 0.00000000 -3.51236754
O  1.08453865 0.00000000 2.65335061
O  -1.08453865 0.00000000 2.65335061
H  2.14210388 0.00000000 -1.96957043
H  -2.14210388 0.00000000 -1.96957043
H  2.12746383 0.00000000 0.50566712
H  -2.12746383 0.00000000 0.50566712
H  -0.85796699 0.00000000 -4.02433172
H  0.85796699 0.00000000 -4.02433172
