14
Nitrobenzene 98-95-3 CC3(FC)/cc-pVTZ
C    0.00000000            0.00000000           -0.33719774
C    2.29667056            0.00000000            0.92138137
C   -2.29667056            0.00000000            0.92138137
C    0.00000000            0.00000000            4.85826496
C    2.28247086            0.00000000            3.54756893
C   -2.28247086            0.00000000            3.54756893
N    0.00000000            0.00000000           -3.11429157
O   -2.05476165            0.00000000           -4.18095202
O    2.05476165            0.00000000           -4.18095202
H    4.02347357            0.00000000           -0.14769848
H   -4.02347357            0.00000000           -0.14769848
H    4.04624818            0.00000000            4.56388578
H   -4.04624818            0.00000000            4.56388578
H    0.00000000            0.00000000            6.89454456
