18
Octatetraene 1482-91-3 CC3(Full)/cc-pVTZ
C    1.19649232            0.64794934            0.00000000
C   -1.19649232           -0.64794934            0.00000000
C    3.45745137           -0.52964709            0.00000000
C   -3.45745137            0.52964709            0.00000000
C    5.85705040            0.77625595            0.00000000
C   -5.85705040           -0.77625595            0.00000000
C    8.10525884           -0.39700663            0.00000000
C   -8.10525884            0.39700663            0.00000000
H    1.14813002            2.69304901            0.00000000
H   -1.14813002           -2.69304901            0.00000000
H    3.50962357           -2.57436634            0.00000000
H   -3.50962357            2.57436634            0.00000000
H    5.78969253            2.81832245            0.00000000
H   -5.78969253           -2.81832245            0.00000000
H    8.22516217           -2.43500100            0.00000000
H   -8.22516217            2.43500100            0.00000000
H    9.85247043            0.65022932            0.00000000
H   -9.85247043           -0.65022932            0.00000000
