14
Pentalene_1 250-25-9 CC3(FC)/cc-pVTZ
C   -0.07378347            1.37547375            0.00000000
C    0.07378347           -1.37547375            0.00000000
C    2.30364735            2.30974227            0.00000000
C   -2.30364735           -2.30974227            0.00000000
C    4.08788978            0.11767244            0.00000000
C   -4.08788978           -0.11767244            0.00000000
C    2.75907835           -2.07144063            0.00000000
C   -2.75907835            2.07144063            0.00000000
H    2.88453811            4.25947081            0.00000000
H   -2.88453811           -4.25947081            0.00000000
H    6.11180520            0.29622071            0.00000000
H   -6.11180520           -0.29622071            0.00000000
H    3.52044397           -3.95397547            0.00000000
H   -3.52044397            3.95397547            0.00000000
