12
Phenolate 3229-70-7 CC3(FC)/cc-pVTZ
C  0.00000000 0.00000000 -1.03093135
C  1.20513565 0.00000000 -0.23868341
C  -1.20513565 0.00000000 -0.23868341
C  0.00000000 0.00000000 1.87480657
C  1.19518117 0.00000000 1.14658088
C  -1.19518117 0.00000000 1.14658088
O  0.00000000 0.00000000 -2.29491986
H  2.14216725 0.00000000 -0.77833684
H  -2.14216725 0.00000000 -0.77833684
H  2.13956548 0.00000000 1.67833184
H  -2.13956548 0.00000000 1.67833184
H  0.00000000 0.00000000 2.95381666
