20
Phenyl-pyrrole_1 635-90-5  (N-Phenylpyrrole) CCSD(T)(FC)/cc-pVTZ Planar
C  0.00000000 0.00000000 0.41546668
C  1.20097474 0.00000000 1.12457169
C  -1.20097474 0.00000000 1.12457169
C  0.00000000 0.00000000 3.22006869
C  1.19693778 0.00000000 2.51334100
C  -1.19693778 0.00000000 2.51334100
C  1.11756592 0.00000000 -1.80249361
C  -1.11756592 0.00000000 -1.80249361
C  0.71152077 0.00000000 -3.11028995
C  -0.71152077 0.00000000 -3.11028995
N  0.00000000 0.00000000 -0.99271546
H  2.14067847 0.00000000 0.60243841
H  -2.14067847 0.00000000 0.60243841
H  2.13744511 0.00000000 3.03989148
H  -2.13744511 0.00000000 3.03989148
H  0.00000000 0.00000000 4.29695222
H  2.10609195 0.00000000 -1.39370911
H  -2.10609195 0.00000000 -1.39370911
H  1.35995001 0.00000000 -3.96470817
H  -1.35995001 0.00000000 -3.96470817
