11
Pyranone 108-97-4 (4H-Pyran-4-one) CC3(FC)/cc-pVTZ
C    0.00000000            0.00000000           -2.03875103 
C    2.29857501            0.00000000           -0.50612872 
C   -2.29857501            0.00000000           -0.50612872 
C    2.18356567            0.00000000            2.02781371 
C   -2.18356567            0.00000000            2.02781371 
O    0.00000000            0.00000000            3.36810442 
O    0.00000000            0.00000000           -4.35224344 
H    3.80117763            0.00000000            3.26042029 
H   -3.80117763            0.00000000            3.26042029 
H    4.10758504            0.00000000           -1.43183287 
H   -4.10758504            0.00000000           -1.43183287
