10
Pyridazine 289-80-5 CC3(Full)/aug-cc-pVTZ
C  0.00000000 0.68872839 -1.22532450
C  0.00000000 -0.68872839 -1.22532450
C  0.00000000 1.31908960 0.01859219
C  0.00000000 -1.31908960 0.01859219
N  0.00000000 0.66797087 1.18061868
N  0.00000000 -0.66797087 1.18061868
H  0.00000000 2.39613553 0.10212974
H  0.00000000 -2.39613553 0.10212974
H  0.00000000 1.26479386 -2.13770417
H  0.00000000 -1.26479386 -2.13770417
