10
Pyrimidine 289-95-2 CC3(Full)/aug-cc-pVTZ
C    0.00000000            0.00000000            2.41518350
C    0.00000000            0.00000000           -2.60410885
C    0.00000000            2.23272561           -1.22869402
C    0.00000000           -2.23272561           -1.22869402
N    0.00000000            2.26214196            1.29619742
N    0.00000000           -2.26214196            1.29619742
H    0.00000000            0.00000000            4.45780256
H    0.00000000            0.00000000           -4.64120942
H    0.00000000            4.05149341           -2.16351748
H    0.00000000           -4.05149341           -2.16351748
