11
Pyridine 110-86-1 CC3(Full)/aug-cc-pVTZ
C  0.00000000 0.00000000 -1.40999814
C  0.00000000 1.19326760 -0.69888348
C  0.00000000 -1.19326760 -0.69888348
C  0.00000000 1.13983982 0.69147364
C  0.00000000 -1.13983982 0.69147364
N  0.00000000 0.00000000 1.39056567
H  0.00000000 0.00000000 -2.49052666
H  0.00000000 2.14723361 -1.20454149
H  0.00000000 -2.14723361 -1.20454149
H  0.00000000 2.05351939 1.27183237
H  0.00000000 -2.05351939 1.27183237
