10
Pyrrole 109-97-7 CC3(Full)/aug-cc-pVTZ
C  0.00000000 1.12145642 0.33166999
C  0.00000000 -1.12145642 0.33166999
C  0.00000000 0.71210747 -0.98165989
C  0.00000000 -0.71210747 -0.98165989
N  0.00000000 0.00000000 1.11621628
H  0.00000000 0.00000000 2.11806986
H  0.00000000 2.10426393 0.76640811
H  0.00000000 -2.10426393 0.76640811
H  0.00000000 1.35853790 -1.84067463
H  0.00000000 -1.35853790 -1.84067463
