10
Pyrrole 109-97-7 CC3(Full)/aug-cc-pVTZ
C    0.00000000            2.11924634            0.62676569
C    0.00000000           -2.11924634            0.62676569
C    0.00000000            1.34568862           -1.85506908
C    0.00000000           -1.34568862           -1.85506908
N    0.00000000            0.00000000            2.10934391
H    0.00000000            0.00000000            4.00257355
H    0.00000000            3.97648410            1.44830201
H    0.00000000           -3.97648410            1.44830201
H    0.00000000            2.56726559           -3.47837232
H    0.00000000           -2.56726559           -3.47837232
