16
Streptocyanine-C5 XXXXX-XX-X CC3(Full)/cc-pVTZ, Charge: +1
C  0.00000000 0.00000000 0.24795882
C  0.00000000 1.23530979 -0.38408668
C  0.00000000 -1.23530979 -0.38408668
C  0.00000000 2.38992424 0.37451749
C  0.00000000 -2.38992424 0.37451749
N  0.00000000 3.62239197 -0.10342267
N  0.00000000 -3.62239197 -0.10342267
H  0.00000000 0.00000000 1.33181388
H  0.00000000 1.29625478 -1.46127148
H  0.00000000 -1.29625478 -1.46127148
H  0.00000000 2.31129084 1.45253204
H  0.00000000 -2.31129084 1.45253204
H  0.00000000 4.41659633 0.51113814
H  0.00000000 -4.41659633 0.51113814
H  0.00000000 3.80023635 -1.09357787
H  0.00000000 -3.80023635 -1.09357787
