12
Streptocyanine-C3 XXXXX-XX-X CC3(Full)/aug-cc-pVTZ, Charge: +1
C    0.00000000            0.00000000            0.65419136   
C    0.00000000            2.24294899           -0.68901318
C    0.00000000           -2.24294899           -0.68901318
N    0.00000000            4.52279187            0.30876781
N    0.00000000           -4.52279187            0.30876781
H    0.00000000            0.00000000            2.69658250
H    0.00000000            2.18484165           -2.73430592
H    0.00000000           -2.18484165           -2.73430592
H    0.00000000            6.07453303           -0.78935070
H    0.00000000           -6.07453303           -0.78935070
H    0.00000000            4.78699964            2.19452692
H    0.00000000           -4.78699964            2.19452692
