8
Streptocyanine-C1 XXXXX-XX-X CC3(Full)/aug-cc-pVTZ, Charge: +1
C  0.00000000 0.00000000 0.42592839
N  0.00000000 1.16113850 -0.17770061
N  0.00000000 -1.16113850 -0.17770061
H  0.00000000 0.00000000 1.50517497
H  0.00000000 1.25403474 -1.18203312
H  0.00000000 -1.25403474 -1.18203312
H  0.00000000 2.00776447 0.36724464
H  0.00000000 -2.00776447 0.36724464
