14
Tetrathiafulvalene 31366-25-3 CC3(FC)/cc-pVTZ
C  -0.67279654 0.00000000 0.00000000
C  0.67279654 0.00000000 0.00000000
C  -3.16973983 0.66851889 0.00000000
C  -3.16973983 -0.66851889 0.00000000
C  3.16973983 -0.66851889 0.00000000
C  3.16973983 0.66851889 0.00000000
S  -1.62498783 1.49243846 0.00000000
S  -1.62498783 -1.49243846 0.00000000
S  1.62498783 -1.49243846 0.00000000
S  1.62498783 1.49243846 0.00000000
H  -4.05633452 1.27562247 0.00000000
H  -4.05633452 -1.27562247 0.00000000
H  4.05633452 -1.27562247 0.00000000
H  4.05633452 1.27562247 0.00000000
