14
Tetrathiafulvalene 31366-25-3 CC3(FC)/cc-pVTZ
C   -1.27140171            0.00000000            0.00000000
C    1.27140171            0.00000000            0.00000000
C   -5.98994256            1.26331812            0.00000000
C   -5.98994256           -1.26331812            0.00000000
C    5.98994256           -1.26331812            0.00000000
C    5.98994256            1.26331812            0.00000000
S   -3.07078317            2.82030107            0.00000000
S   -3.07078317           -2.82030107            0.00000000
S    3.07078317           -2.82030107            0.00000000
S    3.07078317            2.82030107            0.00000000
H   -7.66536437            2.41057807            0.00000000
H   -7.66536437           -2.41057807            0.00000000
H    7.66536437           -2.41057807            0.00000000
H    7.66536437            2.41057807            0.00000000
