8
Tetrazine 290-96-0 (s-Tetrazine) CC3(Full)/aug-cc-pVTZ
C    0.00000000            0.00000000            2.38208164
C    0.00000000            0.00000000           -2.38208164
N    2.25673244            0.00000000            1.24973261
N   -2.25673244            0.00000000            1.24973261
N    2.25673244            0.00000000           -1.24973261
N   -2.25673244            0.00000000           -1.24973261
H    0.00000000            0.00000000            4.41850901
H    0.00000000            0.00000000           -4.41850901
