12
Thienothiophene 251-41-2 (Thieno[3,2-b]thiophene) CC3(FC)/cc-pVTZ
C  0.22023765 0.65666168 0.00000000
C  -0.22023765 -0.65666168 0.00000000
C  -0.82619784 1.61748444 0.00000000
C  0.82619784 -1.61748444 0.00000000
C  -2.04729223 1.00766829 0.00000000
C  2.04729223 -1.00766829 0.00000000
S  1.95011320 0.72847061 0.00000000
S  -1.95011320 -0.72847061 0.00000000
H  -0.69195877 2.68378239 0.00000000
H  0.69195877 -2.68378239 0.00000000
H  -3.01072085 1.48013596 0.00000000
H  3.01072085 -1.48013596 0.00000000
