12
Thienothiophene 251-41-2 (Thieno[3,2-b]thiophene) CC3(FC)/cc-pVTZ
C    0.41618901            1.24091123            0.00000000
C   -0.41618901           -1.24091123            0.00000000
C   -1.56128826            3.05660382            0.00000000
C    1.56128826           -3.05660382            0.00000000
C   -3.86882315            1.90421786            0.00000000
C    3.86882315           -1.90421786            0.00000000
S    3.68518133            1.37661050            0.00000000
S   -3.68518133           -1.37661050            0.00000000
H   -1.30761309            5.07161572            0.00000000
H    1.30761309           -5.07161572            0.00000000
H   -5.68944011            2.79705270            0.00000000
H    5.68944011           -2.79705270            0.00000000
