4
Thioformaldehyde_2 865-36-1 (Methanethial) CC3(Full)/aug-cc-pVTZ Excited state
C    0.00000000            0.00000000           -2.20256705
S    0.00000000            0.00000000            1.02717172
H    0.00000000            1.76634191           -3.21909384
H    0.00000000           -1.76634191           -3.21909384
