10
Thioacetone 4756-05-2 (2-Propanethione) CC3(Full)/aug-cc-pVTZ
C  0.00000000 0.00000000 0.36235940
C  0.00000000 1.26230779 1.16781477
C  0.00000000 -1.26230779 1.16781477
S  0.00000000 0.00000000 -1.26960306
H  0.00000000 2.14109911 0.52965651
H  0.00000000 -2.14109911 0.52965651
H  0.87787702 1.28379518 1.81884485
H  -0.87787702 1.28379518 1.81884485
H  0.87787702 -1.28379518 1.81884485
H  -0.87787702 -1.28379518 1.81884485
