4
Thioformaldehyde_1 865-36-1 (Methanethial) CC3(Full)/aug-cc-pVTZ Ground state
C    0.00000000            0.00000000           -2.08677304
S    0.00000000            0.00000000            0.97251194
H    0.00000000            1.73657773           -3.17013507
H    0.00000000           -1.73657773           -3.17013507
