15
Thymine 65-71-4 CCSD(T)(FC)/cc-pVTZ (Cs point group)
C  -0.23627112 -1.52206485 0.00000000
C  -1.18062634 -0.56635119 0.00000000
C  -0.75044752 0.82830101 0.00000000
C  1.61704964 0.04392634 0.00000000
C  -2.64629326 -0.84218359 0.00000000
N  1.11039605 -1.23655534 0.00000000
N  0.63221477 1.00973658 0.00000000
O  -1.50119555 1.78394321 0.00000000
O  2.80259063 0.29195127 0.00000000
H  -0.48296842 -2.57049962 0.00000000
H  0.95898552 1.96317498 0.00000000
H  1.79584324 -1.96961660 0.00000000
H  -3.11898114 -0.39813314 0.87385047
H  -3.11898114 -0.39813314 -0.87385047
H  -2.83919450 -1.91255895 0.00000000
