24
Tolan 501-65-5 (Diphenylacetylene) CCSD(T)(FC)/cc-pVTZ
C   -1.14632202            0.00000000            0.00000000
C    1.14632202            0.00000000            0.00000000
C   -3.83802475            0.00000000            0.00000000
C    3.83802475            0.00000000            0.00000000
C   -5.17616712           -2.27953873            0.00000000
C   -5.17616712            2.27953873            0.00000000
C    5.17616712            2.27953873            0.00000000
C    5.17616712           -2.27953873            0.00000000
C   -7.79943938           -2.27513115            0.00000000
C   -7.79943938            2.27513115            0.00000000
C    7.79943938            2.27513115            0.00000000
C    7.79943938           -2.27513115            0.00000000
C   -9.12002539            0.00000000            0.00000000
C    9.12002539            0.00000000            0.00000000
H   -4.14659821           -4.03713330            0.00000000
H   -4.14659821            4.03713330            0.00000000
H    4.14659821            4.03713330            0.00000000
H    4.14659821           -4.03713330            0.00000000
H   -8.81141954           -4.04290254            0.00000000
H   -8.81141954            4.04290254            0.00000000
H    8.81141954            4.04290254            0.00000000
H    8.81141954           -4.04290254            0.00000000
H  -11.15613663            0.00000000            0.00000000
H   11.15613663            0.00000000            0.00000000
