9
Triazine 290-88-3 (s-Triazine) CC3(Full)/aug-cc-pVTZ
C    0.00000000           -2.11414732           -1.22060353
C    0.00000000            0.00000000            2.44120705
C    0.00000000            2.11414732           -1.22060353
N    0.00000000           -2.24624733            1.29687150
N    0.00000000            2.24624733            1.29687150
N    0.00000000            0.00000000           -2.59374300
H    0.00000000            3.88296710           -2.24183210
H    0.00000000           -3.88296710           -2.24183210
H    0.00000000            0.00000000            4.48366420
